<?xml version="1.0" encoding="UTF-8"?>

<!-- generated on Fri 15 Jan 2021 10:53:36 AM MST by Eclipse SUMO netedit Version 1.8.0
<configuration xmlns:xsi="http://www.w3.org/2001/XMLSchema-instance" xsi:noNamespaceSchemaLocation="http://sumo.dlr.de/xsd/netconvertConfiguration.xsd">

    <output>
        <output-file value="/home/sepehr/Sumo/SpeedAc/network.xml"/>
    </output>

    <processing>
        <offset.disable-normalization value="true"/>
    </processing>

    <junctions>
        <no-turnarounds value="true"/>
    </junctions>

    <report>
        <aggregate-warnings value="5"/>
    </report>

</configuration>
-->

<net version="1.6" junctionCornerDetail="5" limitTurnSpeed="5.50" xmlns:xsi="http://www.w3.org/2001/XMLSchema-instance" xsi:noNamespaceSchemaLocation="http://sumo.dlr.de/xsd/net_file.xsd">

    <location netOffset="0.00,0.00" convBoundary="-41.05,43.54,965.13,52.20" origBoundary="10000000000.00,10000000000.00,-10000000000.00,-10000000000.00" projParameter="!"/>

    <edge id="gneE0" from="end" to="start" priority="-1">
        <lane id="gneE0_0" index="0" speed="13.89" length="1006.22" shape="-41.12,44.20 965.07,35.54"/>
        <lane id="gneE0_1" index="1" speed="13.89" length="1006.22" shape="-41.09,47.40 965.09,38.74"/>
        <lane id="gneE0_2" index="2" speed="13.89" length="1006.22" shape="-41.07,50.60 965.12,41.94"/>
    </edge>

    <junction id="end" type="dead_end" x="-41.05" y="52.20" incLanes="" intLanes="" shape="-41.05,52.20 -41.14,42.60"/>
    <junction id="start" type="dead_end" x="965.13" y="43.54" incLanes="gneE0_0 gneE0_1 gneE0_2" intLanes="" shape="965.05,33.94 965.13,43.54"/>

</net>
