<?xml version="1.0" encoding="UTF-8"?>

<!-- generated on Fri 12 Feb 2021 08:10:58 PM MST by Eclipse SUMO netedit Version 1.8.0
<configuration xmlns:xsi="http://www.w3.org/2001/XMLSchema-instance" xsi:noNamespaceSchemaLocation="http://sumo.dlr.de/xsd/netconvertConfiguration.xsd">

    <input>
        <sumo-net-file value="/home/sepehr/Sumo/downtown/osm.net.xml"/>
    </input>

    <output>
        <output-file value="/home/sepehr/Sumo/downtown/osm.net.xml"/>
        <output.street-names value="true"/>
    </output>

    <processing>
        <geometry.min-radius.fix.railways value="false"/>
        <geometry.max-grade.fix value="false"/>
        <offset.disable-normalization value="true"/>
        <lefthand value="false"/>
    </processing>

    <junctions>
        <no-turnarounds value="true"/>
        <junctions.corner-detail value="5"/>
        <junctions.limit-turn-speed value="-1"/>
        <rectangular-lane-cut value="false"/>
    </junctions>

    <pedestrian>
        <walkingareas value="false"/>
    </pedestrian>

    <report>
        <aggregate-warnings value="5"/>
    </report>

</configuration>
-->

<net version="1.6" junctionCornerDetail="5" xmlns:xsi="http://www.w3.org/2001/XMLSchema-instance" xsi:noNamespaceSchemaLocation="http://sumo.dlr.de/xsd/net_file.xsd">

    <location netOffset="-704240.77,-5658752.81" convBoundary="144.95,452.62,1761.68,1132.69" origBoundary="-114.619258,50.935938,-113.965187,51.219267" projParameter="+proj=utm +zone=11 +ellps=WGS84 +datum=WGS84 +units=m +no_defs"/>

    <type id="highway.secondary" priority="11" numLanes="1" speed="13.89" disallow="tram rail_urban rail rail_electric rail_fast ship" oneway="1"/>
    <type id="railway.tram" priority="17" numLanes="1" speed="13.89" allow="tram" oneway="1"/>

    <edge id=":109652565_0" function="internal">
        <lane id=":109652565_0_0" index="0" speed="13.89" length="8.99" shape="1450.73,669.75 1450.35,667.33 1449.29,665.60 1447.54,664.56 1445.10,664.21"/>
    </edge>
    <edge id=":109652565_1" function="internal">
        <lane id=":109652565_1_0" index="0" speed="13.89" length="11.11" shape="1450.73,669.75 1450.63,658.64"/>
    </edge>
    <edge id=":109652565_2" function="internal">
        <lane id=":109652565_2_0" index="0" speed="13.89" length="2.34" shape="1450.73,669.75 1451.51,668.55 1452.31,668.14"/>
    </edge>
    <edge id=":109652565_6" function="internal">
        <lane id=":109652565_6_0" index="0" speed="13.89" length="2.34" shape="1452.31,668.14 1453.11,668.53 1453.93,669.72"/>
    </edge>
    <edge id=":109652565_3" function="internal">
        <lane id=":109652565_3_0" index="0" speed="13.89" length="11.10" shape="1453.83,658.62 1453.93,669.72"/>
    </edge>
    <edge id=":109652565_4" function="internal">
        <lane id=":109652565_4_0" index="0" speed="13.89" length="4.02" shape="1453.83,658.62 1453.30,661.06 1452.26,662.18"/>
    </edge>
    <edge id=":109652565_5" function="internal">
        <lane id=":109652565_5_0" index="0" speed="13.89" length="2.34" shape="1453.83,658.62 1453.04,659.82 1452.24,660.23"/>
    </edge>
    <edge id=":109652565_7" function="internal">
        <lane id=":109652565_7_0" index="0" speed="13.89" length="7.65" shape="1452.26,662.18 1451.67,662.81 1448.93,663.86 1445.10,664.21"/>
    </edge>
    <edge id=":109652565_8" function="internal">
        <lane id=":109652565_8_0" index="0" speed="13.89" length="2.34" shape="1452.24,660.23 1451.44,659.83 1450.63,658.64"/>
    </edge>
    <edge id=":109652577_0" function="internal">
        <lane id=":109652577_0_0" index="0" speed="13.89" length="9.06" shape="1451.84,776.68 1451.46,774.24 1450.38,772.50 1448.61,771.46 1446.14,771.13"/>
    </edge>
    <edge id=":109652577_1" function="internal">
        <lane id=":109652577_1_0" index="0" speed="13.89" length="14.39" shape="1451.84,776.68 1451.67,762.29"/>
    </edge>
    <edge id=":109652577_2" function="internal">
        <lane id=":109652577_2_0" index="0" speed="13.89" length="2.34" shape="1451.84,776.68 1452.63,775.47 1453.42,775.06"/>
    </edge>
    <edge id=":109652577_9" function="internal">
        <lane id=":109652577_9_0" index="0" speed="13.89" length="2.34" shape="1453.42,775.06 1454.23,775.45 1455.04,776.63"/>
    </edge>
    <edge id=":109652577_3" function="internal">
        <lane id=":109652577_3_0" index="0" speed="13.89" length="14.38" shape="1454.87,762.26 1455.04,776.63"/>
    </edge>
    <edge id=":109652577_4" function="internal">
        <lane id=":109652577_4_0" index="0" speed="13.89" length="5.91" shape="1454.87,762.26 1454.36,766.12 1453.34,767.85"/>
    </edge>
    <edge id=":109652577_5" function="internal">
        <lane id=":109652577_5_0" index="0" speed="13.89" length="2.34" shape="1454.87,762.26 1454.08,763.46 1453.28,763.87"/>
    </edge>
    <edge id=":109652577_10" function="internal">
        <lane id=":109652577_10_0" index="0" speed="13.89" length="8.30" shape="1453.34,767.85 1452.73,768.88 1449.99,770.55 1446.14,771.13"/>
    </edge>
    <edge id=":109652577_11" function="internal">
        <lane id=":109652577_11_0" index="0" speed="13.89" length="2.34" shape="1453.28,763.87 1452.48,763.48 1451.67,762.29"/>
    </edge>
    <edge id=":109652577_6" function="internal">
        <lane id=":109652577_6_0" index="0" speed="13.89" length="9.03" shape="1446.12,767.93 1448.57,767.56 1450.31,766.50 1451.34,764.74 1451.67,762.29"/>
    </edge>
    <edge id=":109652577_7" function="internal">
        <lane id=":109652577_7_0" index="0" speed="13.89" length="14.19" shape="1446.12,767.93 1449.98,768.45 1452.75,770.08 1454.44,772.80 1455.04,776.63"/>
    </edge>
    <edge id=":109652577_8" function="internal">
        <lane id=":109652577_8_0" index="0" speed="13.89" length="2.56" shape="1446.12,767.93 1447.33,768.72 1447.73,769.52 1447.63,769.72"/>
    </edge>
    <edge id=":109652577_12" function="internal">
        <lane id=":109652577_12_0" index="0" speed="13.89" length="2.12" shape="1447.63,769.72 1447.34,770.32 1446.14,771.13"/>
    </edge>
    <edge id=":1414923993_0" function="internal">
        <lane id=":1414923993_0_0" index="0" speed="13.89" length="4.67" shape="869.18,1068.82 868.38,1070.02 867.58,1070.42 866.78,1070.02 865.98,1068.82"/>
    </edge>
    <edge id=":2459924812_0" function="internal">
        <lane id=":2459924812_0_0" index="0" speed="13.89" length="4.67" shape="1630.78,1077.21 1629.97,1078.41 1629.17,1078.80 1628.37,1078.39 1627.58,1077.19"/>
    </edge>
    <edge id=":29015079_0" function="internal">
        <lane id=":29015079_0_0" index="0" speed="13.89" length="12.84" shape="1278.94,669.87 1278.79,657.03"/>
    </edge>
    <edge id=":29015079_1" function="internal">
        <lane id=":29015079_1_0" index="0" speed="13.89" length="2.57" shape="1278.94,669.87 1279.73,668.66 1280.52,668.25 1280.74,668.36"/>
    </edge>
    <edge id=":29015079_7" function="internal">
        <lane id=":29015079_7_0" index="0" speed="13.89" length="2.10" shape="1280.74,668.36 1281.33,668.64 1282.14,669.84"/>
    </edge>
    <edge id=":29015079_2" function="internal">
        <lane id=":29015079_2_0" index="0" speed="13.89" length="11.64" shape="1290.81,664.22 1286.99,664.57 1284.28,665.62 1282.66,667.38 1282.14,669.84"/>
    </edge>
    <edge id=":29015079_3" function="internal">
        <lane id=":29015079_3_0" index="0" speed="13.89" length="15.66" shape="1290.81,664.22 1285.58,663.77 1281.84,662.42 1279.57,660.18 1278.79,657.03"/>
    </edge>
    <edge id=":29015079_4" function="internal">
        <lane id=":29015079_4_0" index="0" speed="13.89" length="13.28" shape="1284.94,656.96 1284.63,661.04 1283.64,663.99 1282.60,666.64 1282.14,669.84"/>
    </edge>
    <edge id=":29015079_5" function="internal">
        <lane id=":29015079_5_0" index="0" speed="13.89" length="9.03" shape="1273.25,662.69 1275.70,662.32 1277.44,661.25 1278.47,659.49 1278.79,657.03"/>
    </edge>
    <edge id=":29015079_6" function="internal">
        <lane id=":29015079_6_0" index="0" speed="13.89" length="12.96" shape="1273.25,662.69 1277.11,663.11 1279.88,664.43 1281.56,666.68 1282.14,669.84"/>
    </edge>
    <edge id=":29015115_0" function="internal">
        <lane id=":29015115_0_0" index="0" speed="13.89" length="4.67" shape="345.54,678.96 346.32,677.75 347.11,677.34 347.92,677.73 348.74,678.91"/>
    </edge>
    <edge id=":29015115_1" function="internal">
        <lane id=":29015115_1_0" index="0" speed="13.89" length="14.44" shape="354.23,670.22 339.79,670.18"/>
    </edge>
    <edge id=":29015115_2" function="internal">
        <lane id=":29015115_2_0" index="0" speed="13.89" length="11.79" shape="354.23,670.22 350.36,669.86 347.60,668.80 345.93,667.04 345.37,664.58"/>
    </edge>
    <edge id=":29015115_3" function="internal">
        <lane id=":29015115_3_0" index="0" speed="13.89" length="11.74" shape="348.57,664.56 348.03,667.03 346.39,668.79 343.64,669.84 339.79,670.18"/>
    </edge>
    <edge id=":29015115_4" function="internal">
        <lane id=":29015115_4_0" index="0" speed="13.89" length="4.67" shape="348.57,664.56 347.77,665.77 346.98,666.17 346.17,665.78 345.37,664.58"/>
    </edge>
    <edge id=":29051003_0" function="internal">
        <lane id=":29051003_0_0" index="0" speed="13.89" length="3.19" shape="250.94,673.10 249.99,673.10 249.34,673.11 248.70,673.17 247.75,673.28"/>
    </edge>
    <edge id=":29051003_1" function="internal">
        <lane id=":29051003_1_0" index="0" speed="13.89" length="3.17" shape="250.95,669.90 247.77,669.87"/>
    </edge>
    <edge id=":29404912_0" function="internal">
        <lane id=":29404912_0_0" index="0" speed="13.89" length="1.11" shape="344.74,568.10 345.04,567.04"/>
    </edge>
    <edge id=":29404912_1" function="internal">
        <lane id=":29404912_1_0" index="0" speed="13.89" length="1.16" shape="344.74,568.10 345.38,567.14"/>
    </edge>
    <edge id=":29404912_4" function="internal">
        <lane id=":29404912_4_0" index="0" speed="13.89" length="6.67" shape="345.04,567.04 345.13,566.73 346.30,565.75 348.27,565.17 351.03,564.98"/>
    </edge>
    <edge id=":29404912_5" function="internal">
        <lane id=":29404912_5_0" index="0" speed="13.89" length="3.51" shape="345.38,567.14 345.53,566.90 346.33,566.49 347.13,566.89 347.94,568.08"/>
    </edge>
    <edge id=":29404912_2" function="internal">
        <lane id=":29404912_2_0" index="0" speed="13.89" length="9.41" shape="341.62,565.01 351.03,564.98"/>
    </edge>
    <edge id=":29404912_3" function="internal">
        <lane id=":29404912_3_0" index="0" speed="13.89" length="7.77" shape="341.62,565.01 344.38,565.18 346.35,565.75 347.54,566.72 347.94,568.08"/>
    </edge>
    <edge id=":29404913_0" function="internal">
        <lane id=":29404913_0_0" index="0" speed="13.89" length="17.41" shape="346.87,780.69 346.26,763.29"/>
    </edge>
    <edge id=":29404913_1" function="internal">
        <lane id=":29404913_1_0" index="0" speed="13.89" length="6.14" shape="346.87,780.69 347.21,776.80 348.27,774.84"/>
    </edge>
    <edge id=":29404913_2" function="internal">
        <lane id=":29404913_2_0" index="0" speed="13.89" length="4.17" shape="346.87,780.69 347.28,778.20 348.34,776.95"/>
    </edge>
    <edge id=":29404913_3" function="internal">
        <lane id=":29404913_3_0" index="0" speed="13.89" length="2.34" shape="346.87,780.69 347.60,779.45 348.38,779.00"/>
    </edge>
    <edge id=":29404913_7" function="internal">
        <lane id=":29404913_7_0" index="0" speed="13.89" length="8.03" shape="348.27,774.84 348.72,774.00 351.41,772.32 355.28,771.74"/>
    </edge>
    <edge id=":29404913_8" function="internal">
        <lane id=":29404913_8_0" index="0" speed="13.89" length="7.44" shape="348.34,776.95 348.82,776.40 351.49,775.32 355.30,774.94"/>
    </edge>
    <edge id=":29404913_9" function="internal">
        <lane id=":29404913_9_0" index="0" speed="13.89" length="2.34" shape="348.38,779.00 349.20,779.36 350.07,780.51"/>
    </edge>
    <edge id=":29404913_4" function="internal">
        <lane id=":29404913_4_0" index="0" speed="13.89" length="9.02" shape="349.46,763.16 349.82,765.53 350.91,767.21 352.72,768.21 355.26,768.54"/>
    </edge>
    <edge id=":29404913_5" function="internal">
        <lane id=":29404913_5_0" index="0" speed="13.89" length="17.36" shape="349.46,763.16 350.07,780.51"/>
    </edge>
    <edge id=":29404913_6" function="internal">
        <lane id=":29404913_6_0" index="0" speed="13.89" length="2.34" shape="349.46,763.16 348.71,764.40 347.92,764.83"/>
    </edge>
    <edge id=":29404913_10" function="internal">
        <lane id=":29404913_10_0" index="0" speed="13.89" length="2.34" shape="347.92,764.83 347.11,764.46 346.26,763.29"/>
    </edge>
    <edge id=":29697626_0" function="internal">
        <lane id=":29697626_0_0" index="0" speed="13.89" length="11.24" shape="525.13,670.47 513.90,670.56"/>
    </edge>
    <edge id=":29697626_1" function="internal">
        <lane id=":29697626_1_0" index="0" speed="13.89" length="9.03" shape="525.13,670.47 522.68,670.14 520.91,669.11 519.83,667.38 519.43,664.95"/>
    </edge>
    <edge id=":299615865_0" function="internal">
        <lane id=":299615865_0_0" index="0" speed="13.89" length="4.67" shape="1277.06,1132.76 1276.21,1133.92 1275.39,1134.29 1274.61,1133.86 1273.86,1132.62"/>
    </edge>
    <edge id=":299615925_0" function="internal">
        <lane id=":299615925_0_0" index="0" speed="13.89" length="1.51" shape="379.42,855.11 379.00,854.95 378.72,854.82 378.46,854.65 378.11,854.38"/>
    </edge>
    <edge id=":299615925_1" function="internal">
        <lane id=":299615925_1_0" index="0" speed="13.89" length="0.50" shape="380.08,851.86 380.19,851.95 380.28,852.00 380.37,852.05 380.51,852.10"/>
    </edge>
    <edge id=":299615925_2" function="internal">
        <lane id=":299615925_2_0" index="0" speed="13.89" length="2.34" shape="380.08,851.86 380.53,853.23 380.35,854.10"/>
    </edge>
    <edge id=":299615925_3" function="internal">
        <lane id=":299615925_3_0" index="0" speed="13.89" length="2.34" shape="380.35,854.10 379.55,854.49 378.11,854.38"/>
    </edge>
    <edge id=":30727695_0" function="internal">
        <lane id=":30727695_0_0" index="0" speed="13.89" length="4.67" shape="1760.92,889.32 1762.35,889.45 1763.09,889.97 1763.12,890.86 1762.44,892.14"/>
    </edge>
    <edge id=":30727699_0" function="internal">
        <lane id=":30727699_0_0" index="0" speed="13.89" length="11.90" shape="1635.88,964.21 1634.01,965.81 1632.67,968.11 1631.85,971.09 1631.56,974.77"/>
    </edge>
    <edge id=":30727699_1" function="internal">
        <lane id=":30727699_1_0" index="0" speed="13.89" length="19.08" shape="1635.88,964.21 1632.02,966.30 1627.40,968.58 1622.72,970.75 1618.72,972.55"/>
    </edge>
    <edge id=":30727699_2" function="internal">
        <lane id=":30727699_2_0" index="0" speed="13.89" length="13.06" shape="1635.88,964.21 1632.62,965.47 1630.29,964.88 1628.86,962.43 1628.35,958.12"/>
    </edge>
    <edge id=":30727699_3" function="internal">
        <lane id=":30727699_3_0" index="0" speed="13.89" length="4.67" shape="1635.88,964.21 1634.44,964.13 1633.68,963.65 1633.62,962.75 1634.25,961.46"/>
    </edge>
    <edge id=":30727699_4" function="internal">
        <lane id=":30727699_4_0" index="0" speed="13.89" length="12.96" shape="1617.43,969.63 1619.44,968.15 1620.87,965.75 1621.71,962.43 1621.95,958.19"/>
    </edge>
    <edge id=":30727699_5" function="internal">
        <lane id=":30727699_5_0" index="0" speed="13.89" length="18.71" shape="1617.43,969.63 1621.38,967.85 1625.94,965.73 1630.45,963.52 1634.25,961.46"/>
    </edge>
    <edge id=":30727699_6" function="internal">
        <lane id=":30727699_6_0" index="0" speed="13.89" length="19.22" shape="1617.43,969.63 1623.64,967.59 1628.06,967.77 1630.71,970.16 1631.56,974.77"/>
    </edge>
    <edge id=":30727699_7" function="internal">
        <lane id=":30727699_7_0" index="0" speed="13.89" length="4.67" shape="1617.43,969.63 1618.85,969.87 1619.54,970.44 1619.50,971.34 1618.72,972.55"/>
    </edge>
    <edge id=":30727699_8" function="internal">
        <lane id=":30727699_8_0" index="0" speed="13.89" length="12.31" shape="1628.36,974.74 1627.78,972.18 1625.97,970.96 1622.95,971.08 1618.72,972.55"/>
    </edge>
    <edge id=":30727699_9" function="internal">
        <lane id=":30727699_9_0" index="0" speed="13.89" length="16.96" shape="1628.36,974.74 1627.89,971.23 1626.80,967.74 1625.69,963.61 1625.15,958.16"/>
    </edge>
    <edge id=":30727699_10" function="internal">
        <lane id=":30727699_10_0" index="0" speed="13.89" length="15.19" shape="1628.36,974.74 1628.75,970.22 1629.87,966.49 1631.70,963.57 1634.25,961.46"/>
    </edge>
    <edge id=":30727699_11" function="internal">
        <lane id=":30727699_11_0" index="0" speed="13.89" length="4.67" shape="1628.36,974.74 1629.17,973.55 1629.97,973.16 1630.77,973.56 1631.56,974.77"/>
    </edge>
    <edge id=":30992860_0" function="internal">
        <lane id=":30992860_0_0" index="0" speed="13.89" length="1.67" shape="454.69,882.17 454.19,882.17 453.85,882.13 453.52,882.05 453.06,881.88"/>
    </edge>
    <edge id=":30992860_1" function="internal">
        <lane id=":30992860_1_0" index="0" speed="13.89" length="2.34" shape="454.69,882.17 453.49,881.37 453.09,880.57"/>
    </edge>
    <edge id=":30992860_3" function="internal">
        <lane id=":30992860_3_0" index="0" speed="13.89" length="2.34" shape="453.09,880.57 453.49,879.77 454.69,878.97"/>
    </edge>
    <edge id=":30992860_2" function="internal">
        <lane id=":30992860_2_0" index="0" speed="13.89" length="0.56" shape="454.15,878.87 454.31,878.93 454.42,878.96 454.53,878.97 454.69,878.97"/>
    </edge>
    <edge id=":30992861_0" function="internal">
        <lane id=":30992861_0_0" index="0" speed="13.89" length="9.22" shape="1009.98,878.78 1007.54,879.15 1005.78,880.24 1004.68,882.05 1004.25,884.58"/>
    </edge>
    <edge id=":30992861_1" function="internal">
        <lane id=":30992861_1_0" index="0" speed="13.89" length="14.41" shape="1009.98,878.78 995.57,878.84"/>
    </edge>
    <edge id=":30992861_2" function="internal">
        <lane id=":30992861_2_0" index="0" speed="13.89" length="2.34" shape="1009.98,878.78 1008.78,877.98 1008.38,877.18"/>
    </edge>
    <edge id=":30992861_9" function="internal">
        <lane id=":30992861_9_0" index="0" speed="13.89" length="2.34" shape="1008.38,877.18 1008.77,876.38 1009.97,875.58"/>
    </edge>
    <edge id=":30992861_3" function="internal">
        <lane id=":30992861_3_0" index="0" speed="13.89" length="14.42" shape="995.56,875.64 1009.97,875.58"/>
    </edge>
    <edge id=":30992861_4" function="internal">
        <lane id=":30992861_4_0" index="0" speed="13.89" length="5.95" shape="995.56,875.64 999.47,876.18 1001.18,877.22"/>
    </edge>
    <edge id=":30992861_5" function="internal">
        <lane id=":30992861_5_0" index="0" speed="13.89" length="2.34" shape="995.56,875.64 996.76,876.43 997.16,877.23"/>
    </edge>
    <edge id=":30992861_10" function="internal">
        <lane id=":30992861_10_0" index="0" speed="13.89" length="8.39" shape="1001.18,877.22 1002.22,877.85 1003.81,880.65 1004.25,884.58"/>
    </edge>
    <edge id=":30992861_11" function="internal">
        <lane id=":30992861_11_0" index="0" speed="13.89" length="2.34" shape="997.16,877.23 996.77,878.03 995.57,878.84"/>
    </edge>
    <edge id=":30992861_6" function="internal">
        <lane id=":30992861_6_0" index="0" speed="13.89" length="9.03" shape="1001.05,884.47 1000.78,881.99 999.77,880.23 998.04,879.18 995.57,878.84"/>
    </edge>
    <edge id=":30992861_7" function="internal">
        <lane id=":30992861_7_0" index="0" speed="13.89" length="14.25" shape="1001.05,884.47 1001.72,880.59 1003.43,877.81 1006.18,876.14 1009.97,875.58"/>
    </edge>
    <edge id=":30992861_8" function="internal">
        <lane id=":30992861_8_0" index="0" speed="13.89" length="2.55" shape="1001.05,884.47 1001.89,883.30 1002.70,882.92 1002.89,883.02"/>
    </edge>
    <edge id=":30992861_12" function="internal">
        <lane id=":30992861_12_0" index="0" speed="13.89" length="2.12" shape="1002.89,883.02 1003.49,883.35 1004.25,884.58"/>
    </edge>
    <edge id=":30992862_0" function="internal">
        <lane id=":30992862_0_0" index="0" speed="13.89" length="7.85" shape="696.97,992.01 694.83,991.73 693.31,990.83 692.40,989.31 692.11,987.18"/>
    </edge>
    <edge id=":30992862_1" function="internal">
        <lane id=":30992862_1_0" index="0" speed="13.89" length="2.62" shape="695.31,987.20 695.41,987.91 695.71,988.42 696.22,988.72 696.93,988.81"/>
    </edge>
    <edge id=":30992863_0" function="internal">
        <lane id=":30992863_0_0" index="0" speed="13.89" length="9.13" shape="692.41,887.39 692.02,884.90 690.94,883.12 689.18,882.06 686.74,881.70"/>
    </edge>
    <edge id=":30992863_1" function="internal">
        <lane id=":30992863_1_0" index="0" speed="13.89" length="14.27" shape="692.41,887.39 692.90,883.50 694.51,880.72 697.26,879.06 701.15,878.51"/>
    </edge>
    <edge id=":30992863_2" function="internal">
        <lane id=":30992863_2_0" index="0" speed="13.89" length="4.67" shape="692.41,887.39 693.19,886.18 693.98,885.76 694.79,886.15 695.61,887.33"/>
    </edge>
    <edge id=":30992863_3" function="internal">
        <lane id=":30992863_3_0" index="0" speed="13.89" length="9.03" shape="701.14,881.71 698.68,882.06 696.94,883.11 695.92,884.87 695.61,887.33"/>
    </edge>
    <edge id=":30992863_4" function="internal">
        <lane id=":30992863_4_0" index="0" speed="13.89" length="14.40" shape="701.14,881.71 686.74,881.70"/>
    </edge>
    <edge id=":30992863_5" function="internal">
        <lane id=":30992863_5_0" index="0" speed="13.89" length="2.34" shape="701.14,881.71 699.94,880.91 699.54,880.11"/>
    </edge>
    <edge id=":30992863_9" function="internal">
        <lane id=":30992863_9_0" index="0" speed="13.89" length="2.34" shape="699.54,880.11 699.95,879.31 701.15,878.51"/>
    </edge>
    <edge id=":30992863_6" function="internal">
        <lane id=":30992863_6_0" index="0" speed="13.89" length="14.41" shape="686.74,878.50 701.15,878.51"/>
    </edge>
    <edge id=":30992863_7" function="internal">
        <lane id=":30992863_7_0" index="0" speed="13.89" length="5.91" shape="686.74,878.50 690.56,879.05 692.31,880.11"/>
    </edge>
    <edge id=":30992863_8" function="internal">
        <lane id=":30992863_8_0" index="0" speed="13.89" length="2.34" shape="686.74,878.50 687.94,879.30 688.34,880.10"/>
    </edge>
    <edge id=":30992863_10" function="internal">
        <lane id=":30992863_10_0" index="0" speed="13.89" length="8.32" shape="692.31,880.11 693.31,880.71 694.99,883.47 695.61,887.33"/>
    </edge>
    <edge id=":30992863_11" function="internal">
        <lane id=":30992863_11_0" index="0" speed="13.89" length="2.34" shape="688.34,880.10 687.94,880.90 686.74,881.70"/>
    </edge>
    <edge id=":30992865_0" function="internal">
        <lane id=":30992865_0_0" index="0" speed="13.89" length="11.17" shape="697.70,669.00 686.53,669.09"/>
    </edge>
    <edge id=":30992865_1" function="internal">
        <lane id=":30992865_1_0" index="0" speed="13.89" length="9.05" shape="692.08,663.45 691.78,665.90 690.75,667.65 689.00,668.72 686.53,669.09"/>
    </edge>
    <edge id=":30992870_0" function="internal">
        <lane id=":30992870_0_0" index="0" speed="13.89" length="12.22" shape="528.05,951.14 524.74,951.16 521.98,951.50 519.27,952.21 516.12,953.29"/>
    </edge>
    <edge id=":30992870_1" function="internal">
        <lane id=":30992870_1_0" index="0" speed="13.89" length="9.11" shape="528.05,951.14 524.46,950.51 521.87,948.90 520.61,946.84"/>
    </edge>
    <edge id=":30992870_4" function="internal">
        <lane id=":30992870_4_0" index="0" speed="13.89" length="4.19" shape="520.61,946.84 520.29,946.33 519.72,942.78"/>
    </edge>
    <edge id=":30992870_2" function="internal">
        <lane id=":30992870_2_0" index="0" speed="13.89" length="9.50" shape="515.03,950.28 517.12,949.16 518.60,947.54 519.46,945.41 519.72,942.78"/>
    </edge>
    <edge id=":30992870_3" function="internal">
        <lane id=":30992870_3_0" index="0" speed="13.89" length="2.34" shape="515.03,950.28 516.43,950.62 517.08,951.24"/>
    </edge>
    <edge id=":30992870_5" function="internal">
        <lane id=":30992870_5_0" index="0" speed="13.89" length="2.34" shape="517.08,951.24 516.98,952.13 516.12,953.29"/>
    </edge>
    <edge id=":30992871_0" function="internal">
        <lane id=":30992871_0_0" index="0" speed="13.89" length="8.97" shape="518.86,887.85 518.47,885.42 517.41,883.68 515.67,882.64 513.25,882.30"/>
    </edge>
    <edge id=":30992871_1" function="internal">
        <lane id=":30992871_1_0" index="0" speed="13.89" length="11.67" shape="518.86,887.85 519.14,883.99 520.15,881.24 521.87,879.60 524.30,879.06"/>
    </edge>
    <edge id=":30992871_2" function="internal">
        <lane id=":30992871_2_0" index="0" speed="13.89" length="11.07" shape="524.32,882.26 513.25,882.30"/>
    </edge>
    <edge id=":30992871_3" function="internal">
        <lane id=":30992871_3_0" index="0" speed="13.89" length="2.34" shape="524.32,882.26 523.12,881.47 522.71,880.67"/>
    </edge>
    <edge id=":30992871_6" function="internal">
        <lane id=":30992871_6_0" index="0" speed="13.89" length="2.34" shape="522.71,880.67 523.11,879.87 524.30,879.06"/>
    </edge>
    <edge id=":30992871_4" function="internal">
        <lane id=":30992871_4_0" index="0" speed="13.89" length="11.06" shape="513.25,879.10 524.30,879.06"/>
    </edge>
    <edge id=":30992871_5" function="internal">
        <lane id=":30992871_5_0" index="0" speed="13.89" length="2.34" shape="513.25,879.10 514.45,879.90 514.85,880.70"/>
    </edge>
    <edge id=":30992871_7" function="internal">
        <lane id=":30992871_7_0" index="0" speed="13.89" length="2.34" shape="514.85,880.70 514.45,881.50 513.25,882.30"/>
    </edge>
    <edge id=":30992876_0" function="internal">
        <lane id=":30992876_0_0" index="0" speed="13.89" length="7.29" shape="1000.95,984.35 1000.61,986.30 999.73,987.72 998.32,988.61 996.38,988.98"/>
    </edge>
    <edge id=":30992876_1" function="internal">
        <lane id=":30992876_1_0" index="0" speed="13.89" length="2.43" shape="996.23,985.78 996.88,985.66 997.35,985.36 997.64,984.89 997.76,984.24"/>
    </edge>
    <edge id=":30992877_0" function="internal">
        <lane id=":30992877_0_0" index="0" speed="13.89" length="10.39" shape="866.05,996.40 865.62,993.75 864.34,991.87 862.19,990.78 859.18,990.47"/>
    </edge>
    <edge id=":30992877_1" function="internal">
        <lane id=":30992877_1_0" index="0" speed="13.89" length="15.12" shape="866.05,996.40 865.84,992.64 865.34,988.89 864.72,985.14 864.16,981.41"/>
    </edge>
    <edge id=":30992877_2" function="internal">
        <lane id=":30992877_2_0" index="0" speed="13.89" length="5.61" shape="866.05,996.40 866.56,992.32 867.26,990.99"/>
    </edge>
    <edge id=":30992877_3" function="internal">
        <lane id=":30992877_3_0" index="0" speed="13.89" length="2.50" shape="866.05,996.40 866.69,995.09 867.44,994.59 867.57,994.63"/>
    </edge>
    <edge id=":30992877_16" function="internal">
        <lane id=":30992877_16_0" index="0" speed="13.89" length="8.55" shape="867.26,990.99 868.09,989.38 870.63,987.57 874.19,986.90"/>
    </edge>
    <edge id=":30992877_17" function="internal">
        <lane id=":30992877_17_0" index="0" speed="13.89" length="2.22" shape="867.57,994.63 868.29,994.88 869.25,995.98"/>
    </edge>
    <edge id=":30992877_4" function="internal">
        <lane id=":30992877_4_0" index="0" speed="13.89" length="8.76" shape="874.28,990.09 872.08,990.51 870.51,991.63 869.57,993.46 869.25,995.98"/>
    </edge>
    <edge id=":30992877_5" function="internal">
        <lane id=":30992877_5_0" index="0" speed="13.89" length="15.10" shape="874.28,990.09 859.18,990.47"/>
    </edge>
    <edge id=":30992877_6" function="internal">
        <lane id=":30992877_6_0" index="0" speed="13.89" length="14.29" shape="874.28,990.09 870.90,989.41 867.76,987.45 865.35,984.65 864.16,981.41"/>
    </edge>
    <edge id=":30992877_7" function="internal">
        <lane id=":30992877_7_0" index="0" speed="13.89" length="4.67" shape="874.28,990.09 873.06,989.33 872.64,988.54 873.02,987.73 874.19,986.90"/>
    </edge>
    <edge id=":30992877_8" function="internal">
        <lane id=":30992877_8_0" index="0" speed="13.89" length="10.09" shape="867.34,981.01 868.05,983.65 869.43,985.51 871.48,986.59 874.19,986.90"/>
    </edge>
    <edge id=":30992877_9" function="internal">
        <lane id=":30992877_9_0" index="0" speed="13.89" length="15.10" shape="867.34,981.01 867.90,984.74 868.53,988.48 869.04,992.23 869.25,995.98"/>
    </edge>
    <edge id=":30992877_10" function="internal">
        <lane id=":30992877_10_0" index="0" speed="13.89" length="5.67" shape="867.34,981.01 867.26,985.07 866.57,986.53"/>
    </edge>
    <edge id=":30992877_11" function="internal">
        <lane id=":30992877_11_0" index="0" speed="13.89" length="2.34" shape="867.34,981.01 866.69,982.30 865.95,982.80"/>
    </edge>
    <edge id=":30992877_18" function="internal">
        <lane id=":30992877_18_0" index="0" speed="13.89" length="8.92" shape="866.57,986.53 865.88,988.00 863.19,989.80 859.18,990.47"/>
    </edge>
    <edge id=":30992877_19" function="internal">
        <lane id=":30992877_19_0" index="0" speed="13.89" length="2.34" shape="865.95,982.80 865.11,982.50 864.16,981.41"/>
    </edge>
    <edge id=":30992877_12" function="internal">
        <lane id=":30992877_12_0" index="0" speed="13.89" length="9.04" shape="859.11,987.27 861.59,986.85 863.26,985.74 864.12,983.93 864.16,981.41"/>
    </edge>
    <edge id=":30992877_13" function="internal">
        <lane id=":30992877_13_0" index="0" speed="13.89" length="15.09" shape="859.11,987.27 874.19,986.90"/>
    </edge>