<?xml version="1.0" encoding="UTF-8"?>

<!-- generated on Tue Dec 29 14:05:30 2020 by Eclipse SUMO polyconvert Version 1.8.0
<configuration xmlns:xsi="http://www.w3.org/2001/XMLSchema-instance" xsi:noNamespaceSchemaLocation="http://sumo.dlr.de/xsd/polyconvertConfiguration.xsd">

    <input>
        <net-file value="osm.net.xml"/>
        <osm-files value="osm_bbox.osm.xml"/>
        <osm.keep-full-type value="true"/>
        <type-file value="/usr/share/sumo/data/typemap/osmPolyconvert.typ.xml"/>
    </input>

    <output>
        <output-file value="osm.poly.xml"/>
    </output>

    <processing>
        <poi-layer-offset value="5"/>
    </processing>

    <report>
        <verbose value="true"/>
    </report>

</configuration>
-->

<additional xmlns:xsi="http://www.w3.org/2001/XMLSchema-instance" xsi:noNamespaceSchemaLocation="http://sumo.dlr.de/xsd/additional_file.xsd">
    <location netOffset="-704240.77,-5658752.81" convBoundary="-37967.07,-11683.18,8983.25,18265.82" origBoundary="-114.619258,50.935938,-113.965187,51.219267" projParameter="+proj=utm +zone=11 +ellps=WGS84 +datum=WGS84 +units=m +no_defs"/>

    <poly id="100406162" type="building.commercial" color="255,230,230" fill="1" layer="-1.00" shape="1209.794321,612.145468 1232.700766,612.567744 1239.546426,612.684492 1264.360283,613.149470 1268.094262,612.797126 1268.081651,572.409747 1209.672143,572.911802 1209.771772,603.370146 1209.794321,612.145468"/>
    <poly id="100406163" type="building.yes" color="255,230,230" fill="1" layer="-1.00" shape="1390.343699,519.902099 1439.463468,520.746504 1439.019560,546.495398 1389.900479,545.639873 1390.075979,535.424865 1390.343699,519.902099"/>
    <poly id="106935663" type="amenity.studio" color="237,199,199" fill="1" layer="-1.00" shape="873.451381,302.950254 873.210966,333.717842 878.456488,338.781229 903.856529,338.655269 903.809320,303.121587 873.451381,302.950254"/>
    <poly id="106935663#1" type="building.yes" color="255,230,230" fill="1" layer="-1.00" shape="873.451381,302.950254 873.210966,333.717842 878.456488,338.781229 903.856529,338.655269 903.809320,303.121587 873.451381,302.950254"/>
    <poly id="106935664" type="building.commercial" color="255,230,230" fill="1" layer="-1.00" shape="762.792541,314.141475 763.341969,312.326031 765.642022,310.791707 773.564625,307.131300 784.027770,304.540597 794.779098,303.353239 805.701493,304.043380 820.454479,307.959037 826.051401,310.363932 828.030650,311.956954 828.746303,313.377271 828.005364,315.418932 826.219541,318.142841 825.006537,319.876232 824.888688,322.488272 826.567789,324.392279 828.073714,326.768209 828.436888,329.109857 827.286074,330.867989 822.607777,333.254242 813.392226,336.774110 804.173320,338.612477 794.986672,339.639288 786.195609,339.189744 776.715709,336.998057 768.290010,333.712505 763.699094,331.603747 762.729167,329.516373 763.435038,327.473310 766.140412,322.803890 766.035121,320.684059 763.133634,315.803005 762.792541,314.141475"/>
    <poly id="106935665" type="building.yes" color="255,230,230" fill="1" layer="-1.00" shape="875.950589,513.222810 897.490263,512.898864 897.938959,547.335021 894.390335,547.438898 876.078270,547.969108 875.950589,513.222810"/>
    <poly id="116272463" type="building.yes" color="255,230,230" fill="1" layer="-1.00" shape="763.469774,507.494052 851.786229,506.828318 851.733451,509.921751 851.655294,515.419336 851.683390,518.950249 849.179411,518.906389 849.092100,521.809154 847.890680,521.839343 847.752611,524.606470 846.282688,524.681661 846.776155,548.641532 781.528635,547.250916 781.476063,548.573891 777.058049,548.654436 776.952509,549.897362 773.441966,550.103050 766.417908,550.235941 763.530671,550.299378 763.475822,510.344850 763.469774,507.494052"/>
    <poly id="117742427" type="building.commercial" color="255,230,230" fill="1" layer="-1.00" shape="1120.066739,620.253829 1120.356960,651.755286 1159.779727,651.609847 1159.180452,620.296499 1121.814294,620.256579 1120.066739,620.253829"/>
    <poly id="121980946" type="building.commercial" color="255,230,230" fill="1" layer="-1.00" shape="357.245452,237.125437 388.137350,237.994123 388.324174,199.830987 357.661950,199.182985 357.245452,237.125437"/>
    <poly id="121989500" type="building.yes" color="255,230,230" fill="1" layer="-1.00" shape="1316.774593,519.297740 1316.839681,545.322991 1316.837118,547.149040 1358.617963,547.210363 1358.617279,543.880948 1358.554857,519.203134 1316.774593,519.297740"/>
    <poly id="121989502" type="building.commercial" color="255,230,230" fill="1" layer="-1.00" shape="1156.688785,574.810846 1198.115991,574.578433 1198.031584,603.314647 1198.027807,604.995889 1156.672396,605.899248 1156.688785,574.810846"/>
    <poly id="122084723" type="building.commercial" color="255,230,230" fill="1" layer="-1.00" shape="881.788150,228.487859 881.694773,233.661923 930.873868,232.365755 995.406596,232.771953 995.547415,196.054269 1016.821182,195.920587 1016.850770,191.824077 1017.183600,170.046084 1014.773141,170.117226 1014.629228,168.441248 988.385490,168.755864 989.436463,195.276731 980.928717,217.876485 960.760704,217.742502 952.384391,195.384347 952.892808,187.365088 916.208346,187.053320 916.940908,190.166843 915.027438,219.932578 911.311918,230.407648 885.513331,230.128038 882.453985,219.684272 880.701845,187.657169 876.241026,187.747083 876.775111,228.344253 881.788150,228.487859"/>
    <poly id="122085147" type="building.office" color="255,230,230" fill="1" layer="-1.00" shape="1462.019703,188.049716 1540.215577,186.991918 1540.027599,147.877976 1528.463586,148.129468 1501.654363,148.708454 1497.804514,148.788790 1462.019703,188.049716"/>
    <poly id="122085148" type="building.yes" color="255,230,230" fill="1" layer="-1.00" shape="1237.835165,651.422023 1247.735023,653.096850 1250.609716,651.585629 1256.095542,652.360884 1258.213053,650.652482 1266.907968,652.446378 1269.028869,651.005356 1270.339173,640.312212 1268.971931,637.986197 1269.953426,629.028160 1268.627836,627.594610 1269.854521,618.824501 1269.007608,616.474673 1264.343487,615.509435 1264.360283,613.149470 1239.546426,612.684492 1239.340630,616.618107 1237.083786,617.419028 1236.055048,627.388476 1237.545942,629.429895 1235.904460,638.395053 1237.408114,640.292224 1236.054234,649.614024 1237.835165,651.422023"/>
    <poly id="122085149" type="building.apartments" color="255,230,230" fill="1" layer="-1.00" shape="1468.195557,823.074003 1468.192332,826.147161 1466.353300,826.151777 1466.342521,833.110783 1468.132055,833.115329 1468.122431,840.397299 1469.813861,840.397933 1469.804676,847.668786 1471.278876,847.660759 1471.269160,855.120888 1473.199277,855.119906 1473.188398,862.257071 1501.814679,862.307402 1501.875338,823.125395 1468.195557,823.074003"/>
    <poly id="122085150" type="building.apartments" color="255,230,230" fill="1" layer="-1.00" shape="1556.299824,862.287006 1600.956311,861.986358 1601.383441,821.905846 1563.269363,822.345016 1555.890425,822.406980 1556.299824,862.287006"/>
    <poly id="127625869" type="building.commercial" color="255,230,230" fill="1" layer="-1.00" shape="1306.228647,618.046512 1310.003726,614.900932 1313.023438,612.393365 1325.852933,600.611406 1353.908275,600.404239 1364.260585,609.925274 1369.909277,609.961089 1376.103918,602.814271 1375.084803,581.539061 1370.058366,577.864600 1370.089355,572.331701 1373.646248,572.373236 1376.564554,572.411593 1376.526731,573.712890 1388.762868,585.101798 1388.553728,590.349221 1405.286181,590.359163 1405.290067,615.090339 1386.404131,615.050237 1377.605330,624.843621 1377.671875,643.074399 1381.170444,643.169293 1381.216192,649.417897 1377.033017,649.418204 1372.645735,649.432650 1372.631638,617.029007 1306.228647,618.046512"/>
    <poly id="127634655" type="building.commercial" color="255,230,230" fill="1" layer="-1.00" shape="1159.779727,651.609847 1163.317749,651.594814 1232.777379,651.354208 1232.700766,612.567744 1209.794321,612.145468 1209.771772,603.370146 1198.031584,603.314647 1198.027807,604.995889 1156.672396,605.899248 1156.688785,574.810846 1152.795016,574.945345 1120.815236,575.175563 1121.746709,617.369913 1121.814294,620.256579 1159.180452,620.296499 1159.779727,651.609847"/>
    <poly id="127647965" type="building.yes" color="255,230,230" fill="1" layer="-1.00" shape="1058.085070,906.663366 1061.256838,906.500079 1061.195337,901.520268 1068.426146,901.295821 1068.712161,891.463826 1089.765283,891.689307 1089.747597,894.249663 1096.212639,894.573798 1096.223890,973.989404 1089.879250,973.992971 1089.526987,976.495471 1058.664518,977.282594 1058.494894,965.673129 1058.085070,906.663366"/>
    <poly id="127647965#1" type="tourism.hotel" color="207,245,201" fill="1" layer="-2.00" shape="1058.085070,906.663366 1061.256838,906.500079 1061.195337,901.520268 1068.426146,901.295821 1068.712161,891.463826 1089.765283,891.689307 1089.747597,894.249663 1096.212639,894.573798 1096.223890,973.989404 1089.879250,973.992971 1089.526987,976.495471 1058.664518,977.282594 1058.494894,965.673129 1058.085070,906.663366"/>
    <poly id="127652094" type="building.yes" color="255,230,230" fill="1" layer="-1.00" shape="991.986297,717.187536 991.938762,721.205390 991.822722,723.416644 994.639731,723.528708 994.971860,757.169707 990.724861,760.541695 944.226120,761.097308 944.436619,717.333910 959.819524,717.556007 960.095939,682.725515 963.406151,682.790366 963.130931,714.414020 965.973767,716.876585 991.986297,717.187536"/>
    <poly id="127652096" type="building.commercial" color="255,230,230" fill="1" layer="-1.00" shape="1059.683255,610.234306 1062.341434,610.106246 1089.805180,610.297241 1091.525150,610.287748 1095.477902,610.433928 1095.524252,573.645602 1059.655664,573.710295 1059.683255,610.234306"/>
    <poly id="127652097" type="building.commercial" color="255,230,230" fill="1" layer="-1.00" shape="1062.238277,651.502203 1056.423609,651.582602 1027.013475,651.982431 1026.550637,619.160216 1062.262355,618.443240 1062.238277,651.502203"/>
    <poly id="127652099" type="building.commercial" color="255,230,230" fill="1" layer="-1.00" shape="995.780967,714.777435 995.989575,683.774681 993.022845,680.015509 966.445035,679.971591 963.406151,682.790366 963.130931,714.414020 965.973767,716.876585 991.986297,717.187536 993.279214,717.149889 995.780967,714.777435"/>
    <poly id="127652100" type="building.commercial" color="255,230,230" fill="1" layer="-1.00" shape="1062.238277,651.502203 1067.697256,651.541277 1067.767452,654.539395 1089.408477,654.654586 1093.015971,653.951897 1095.146924,652.433263 1096.372047,650.043448 1096.378364,647.415830 1095.634481,621.842441 1095.710815,613.928465 1089.759490,613.914311 1089.805180,610.297241 1062.341434,610.106246 1062.262355,618.443240 1062.238277,651.502203"/>
    <poly id="127652102" type="building.commercial" color="255,230,230" fill="1" layer="-1.00" shape="1048.412494,600.499210 1051.273386,600.568506 1051.322040,580.471707 1048.217637,580.348183 1048.376610,573.706894 1028.861102,573.965973 1026.533510,576.545775 1026.578177,608.059686 1048.367873,608.147203 1048.412494,600.499210"/>
    <poly id="127717878" type="building.commercial" color="255,230,230" fill="1" layer="-1.00" shape="1220.235997,548.222923 1220.226864,547.042243 1224.425457,547.009013 1224.432183,528.157630 1224.224480,507.816747 1178.524927,508.157260 1178.575436,515.174352 1178.840508,548.534380 1220.235997,548.222923"/>
    <poly id="127717880" type="building.commercial" color="255,230,230" fill="1" layer="-1.00" shape="1124.289188,507.824348 1124.173041,502.630796 1117.754574,502.887535 1117.766836,472.600713 1123.994729,472.547953 1124.259204,466.256046 1155.437592,466.250009 1155.620104,471.891608 1162.538309,471.777294 1162.547015,472.969090 1162.570255,478.203487 1162.725251,507.984772 1124.289188,507.824348"/>
    <poly id="127717962" type="building.commercial" color="255,230,230" fill="1" layer="-1.00" shape="1096.867976,508.314135 1096.930072,468.130257 1069.207536,468.073731 1069.169289,473.973776 1068.976654,508.094988 1095.346474,508.097692 1096.867976,508.314135"/>
    <poly id="127717963" type="amenity.place_of_worship" color="237,199,199" fill="1" layer="-1.00" shape="1065.342270,507.883557 1065.424362,491.885781 1062.147295,491.866731 1062.222968,476.559073 1062.274716,467.497216 1043.054158,467.389413 1043.015359,473.656891 1045.576312,473.680840 1045.473522,491.258962 1042.168423,491.238810 1042.191116,486.963862 1028.549360,486.888781 1028.436436,507.016419 1032.471659,507.032206 1032.446346,512.431688 1029.934025,512.420814 1029.838378,530.878886 1066.174043,531.077525 1066.296656,507.888129 1065.342270,507.883557"/>
    <poly id="127717963#1" type="building.yes" color="255,230,230" fill="1" layer="-1.00" shape="1065.342270,507.883557 1065.424362,491.885781 1062.147295,491.866731 1062.222968,476.559073 1062.274716,467.497216 1043.054158,467.389413 1043.015359,473.656891 1045.576312,473.680840 1045.473522,491.258962 1042.168423,491.238810 1042.191116,486.963862 1028.549360,486.888781 1028.436436,507.016419 1032.471659,507.032206 1032.446346,512.431688 1029.934025,512.420814 1029.838378,530.878886 1066.174043,531.077525 1066.296656,507.888129 1065.342270,507.883557"/>
    <poly id="127717964" type="building.commercial" color="255,230,230" fill="1" layer="-1.00" shape="1095.340718,548.629001 1095.349984,511.360398 1095.346474,508.097692 1068.976654,508.094988 1068.970204,514.430566 1071.651154,514.437034 1071.627558,531.962639 1066.763226,531.969503 1066.707398,549.070694 1095.340718,548.629001"/>
    <poly id="127718615" type="building.yes" color="255,230,230" fill="1" layer="-1.00" shape="1123.904033,418.572803 1146.382325,441.938057 1154.683630,442.168298 1154.920024,391.268288 1130.976188,392.197010 1130.828360,410.018325 1124.058199,409.938149 1123.904033,418.572803"/>
    <poly id="127718619" type="building.yes" color="255,230,230" fill="1" layer="-1.00" shape="1124.058199,409.938149 1116.099348,409.743860 1116.084806,402.349616 1116.019449,364.487887 1125.620964,364.502581 1154.920024,391.268288 1130.976188,392.197010 1130.828360,410.018325 1124.058199,409.938149"/>
    <poly id="127718620" type="building.yes" color="255,230,230" fill="1" layer="-1.00" shape="1154.683630,442.168298 1165.287869,442.557044 1167.565870,442.636598 1170.551224,442.755449 1175.165802,437.917259 1165.349080,427.972571 1162.962340,428.155930 1162.953467,416.742156 1163.042390,397.582284 1167.839947,397.316738 1168.456416,391.528787 1154.920024,391.268288 1154.683630,442.168298"/>
    <poly id="127718622" type="building.yes" color="255,230,230" fill="1" layer="-1.00" shape="1165.349080,427.972571 1175.165802,437.917259 1178.815869,441.614659 1183.243899,436.702238 1189.882109,443.268974 1195.596953,436.358949 1201.754262,442.839743 1213.711804,428.985067 1221.782543,428.660616 1235.723436,442.555577 1240.794249,438.247823 1245.295598,443.304248 1249.828446,438.229028 1255.267880,443.523254 1269.011931,429.227636 1271.268473,429.317516 1271.572116,416.936288 1268.383593,416.631126 1261.455976,409.930273 1254.609337,403.310601 1249.530878,407.985496 1244.651588,402.724723 1239.361344,407.959081 1234.110625,402.683526 1231.479301,405.306827 1219.412944,417.308717 1212.501593,417.601393 1202.183435,405.443062 1199.466733,402.807234 1194.933910,407.882497 1189.304646,402.770080 1184.793965,407.289480 1179.884441,402.962912 1165.763122,417.043304 1162.953467,416.742156 1162.962340,428.155930 1165.349080,427.972571"/>
    <poly id="127718624" type="building.yes" color="255,230,230" fill="1" layer="-1.00" shape="1125.620964,364.502581 1125.944698,361.130415 1194.317223,362.727591 1193.864195,368.288213 1191.533116,370.422411 1189.602969,372.182845 1186.339463,375.170725 1168.456416,391.528787 1154.920024,391.268288 1125.620964,364.502581"/>
    <poly id="127718625" type="building.yes" color="255,230,230" fill="1" layer="-1.00" shape="1202.183435,405.443062 1214.223717,405.376870 1216.750997,405.366156 1219.236229,405.353768 1231.479301,405.306827 1219.412944,417.308717 1212.501593,417.601393 1202.183435,405.443062"/>
    <poly id="127718865" type="building.yes" color="255,230,230" fill="1" layer="-1.00" shape="1095.189148,405.348451 1095.931221,443.493210 1066.202231,443.056211 1066.451394,416.509075 1066.543093,406.090335 1095.189148,405.348451"/>
    <poly id="127718866" type="building.yes" color="255,230,230" fill="1" layer="-1.00" shape="1035.159582,399.953371 1046.023844,399.806594 1092.914871,399.178214 1096.686093,399.127864 1094.979575,358.584100 1036.097316,359.269888 1035.159582,399.953371"/>
    <poly id="127718951" type="building.yes" color="255,230,230" fill="1" layer="-1.00" shape="1066.202231,443.056211 1035.322423,443.141484 1034.291428,417.011097 1041.840986,416.554280 1041.735059,405.103257 1046.189139,405.002094 1050.776811,404.895116 1051.056891,416.731660 1066.451394,416.509075 1066.202231,443.056211"/>
    <poly id="127719137" type="building.retail" color="255,230,230" fill="1" layer="-1.00" shape="1145.898177,337.193715 1146.393205,301.481075 1172.193055,301.194173 1196.257218,325.814203 1197.148680,337.096095 1201.066236,337.073916 1202.848929,337.078086 1265.313860,336.859785 1265.077686,297.320926 1265.029120,294.134366 1243.934060,294.018012 1230.305779,293.942969 1230.406418,255.809426 1218.987663,256.123053 1218.906961,292.876638 1195.950857,292.608430 1190.611956,292.540622 1168.517107,270.638032 1168.683477,256.937418 1165.179784,256.964967 1118.590610,257.382091 1117.899179,274.402311 1117.727886,290.875346 1118.543410,308.478891 1118.418805,337.358216 1122.363946,337.348210 1145.898177,337.193715"/>
    <poly id="127719140" type="building.commercial" color="255,230,230" fill="1" layer="-1.00" shape="1218.906961,292.876638 1195.950857,292.608430 1190.611956,292.540622 1168.517107,270.638032 1168.683477,256.937418 1218.987663,256.123053 1218.906961,292.876638"/>
    <poly id="127731063" type="amenity.parking" color="184,184,179" fill="1" layer="-1.00" shape="1291.302288,442.141391 1350.918010,442.233841 1350.792156,431.828669 1350.796116,423.978601 1351.037976,394.480299 1351.040494,389.837075 1351.045882,387.588005 1350.947090,379.321846 1350.976831,365.715975 1351.029846,359.805365 1291.420626,359.702100 1291.456081,400.925513 1291.348604,407.323893 1291.302288,442.141391"/>
    <poly id="127731063#1" type="building.yes" color="255,230,230" fill="1" layer="-1.00" shape="1291.302288,442.141391 1350.918010,442.233841 1350.792156,431.828669 1350.796116,423.978601 1351.037976,394.480299 1351.040494,389.837075 1351.045882,387.588005 1350.947090,379.321846 1350.976831,365.715975 1351.029846,359.805365 1291.420626,359.702100 1291.456081,400.925513 1291.348604,407.323893 1291.302288,442.141391"/>
    <poly id="127734670" type="building.yes" color="255,230,230" fill="1" layer="-1.00" shape="1014.120210,312.697454 1014.149748,331.717246 1013.476503,335.231402 1011.997643,336.764881 1008.023865,338.377276 1003.945136,338.393191 976.610406,338.452847 945.035777,338.522200 944.765820,300.830584 951.157300,300.728432 951.252416,262.505718 952.633000,259.030821 954.658626,257.162748 957.399147,255.144945 960.090086,254.550453 1009.238403,254.378454 1012.406314,255.027814 1013.751639,256.851798 1014.486885,260.778302 1014.428691,269.828759 1014.277941,290.734332 1014.271275,292.137079 1014.120210,312.697454"/>
    <poly id="127734670#1" type="shop.department_store" color="237,199,255" fill="1" layer="-1.00" shape="1014.120210,312.697454 1014.149748,331.717246 1013.476503,335.231402 1011.997643,336.764881 1008.023865,338.377276 1003.945136,338.393191 976.610406,338.452847 945.035777,338.522200 944.765820,300.830584 951.157300,300.728432 951.252416,262.505718 952.633000,259.030821 954.658626,257.162748 957.399147,255.144945 960.090086,254.550453 1009.238403,254.378454 1012.406314,255.027814 1013.751639,256.851798 1014.486885,260.778302 1014.428691,269.828759 1014.277941,290.734332 1014.271275,292.137079 1014.120210,312.697454"/>
    <poly id="127734672" type="building.retail" color="255,230,230" fill="1" layer="-1.00" shape="1039.023933,270.005476 1038.209597,290.650818 1038.202345,292.420999 1037.339903,312.863998 1037.178222,334.570864 1042.161874,334.568708 1042.328434,307.094091 1045.656001,307.081724 1045.832209,303.358501 1084.667886,303.567550 1084.830409,307.950085 1089.658887,308.320389 1089.657124,312.774332 1094.083626,312.839133 1094.084508,308.407425 1096.597372,308.407210 1105.435111,308.391465 1118.543410,308.478891 1117.727886,290.875346 1117.899179,274.402311 1105.127996,274.484199 1095.614768,274.539878 1095.791203,269.224354 1097.762392,268.901936 1098.054249,261.920750 1095.842781,261.754800 1095.395038,259.777216 1093.967785,258.072434 1090.327524,256.769530 1090.495004,254.148328 1044.450651,254.810501 1044.497044,257.172972 1043.272766,257.246750 1041.370126,258.139801 1039.795336,259.613783 1039.259615,261.964230 1036.926593,262.383625 1036.623624,269.999063 1037.514980,270.001119 1039.023933,270.005476"/>
    <poly id="127734677" type="building.commercial" color="255,230,230" fill="1" layer="-1.00" shape="1095.456151,194.918092 1095.712148,234.346288 1066.449083,234.518065 1066.378882,223.580675 1063.282530,223.602232 1063.170386,205.603567 1065.627676,205.589988 1065.568318,194.909136 1072.870122,194.865616 1091.762756,194.949279 1095.456151,194.918092"/>
    <poly id="127734678" type="amenity.parking" color="184,184,179" fill="1" layer="-1.00" shape="1094.655279,186.468139 1094.642618,184.140414 1094.707813,183.207666 1095.258359,149.969240 1041.760094,149.533166 1040.913604,184.396650 1040.865564,186.309962 1091.826985,186.455807 1094.655279,186.468139"/>
    <poly id="127734678#1" type="building.yes" color="255,230,230" fill="1" layer="-1.00" shape="1094.655279,186.468139 1094.642618,184.140414 1094.707813,183.207666 1095.258359,149.969240 1041.760094,149.533166 1040.913604,184.396650 1040.865564,186.309962 1091.826985,186.455807 1094.655279,186.468139"/>
    <poly id="127734682" type="building.commercial" color="255,230,230" fill="1" layer="-1.00" shape="903.856529,338.655269 945.035777,338.522200 944.765820,300.830584 951.157300,300.728432 951.252416,262.505718 940.971758,257.854460 931.197894,257.933483 904.059813,258.157260 903.857096,294.504992 903.834220,298.434740 903.809320,303.121587 903.856529,338.655269"/>
    <poly id="127741493" type="building.commercial" color="255,230,230" fill="1" layer="-1.00" shape="1584.107586,495.280763 1607.523978,497.540031 1607.371396,501.364421 1613.046301,501.802404 1612.949539,525.338167 1585.318458,552.196060 1564.416069,553.255203 1564.650663,547.374090 1561.125236,547.422761 1556.637975,547.477609 1556.686386,544.328306 1557.020111,522.060276 1584.107586,495.280763"/>
    <poly id="127741496" type="building.yes" color="255,230,230" fill="1" layer="-1.00" shape="1506.994040,544.996583 1556.686386,544.328306 1557.020111,522.060276 1584.107586,495.280763 1575.189297,494.858188 1575.149510,484.946357 1575.146059,468.844858 1575.297110,465.410137 1566.451777,465.268868 1566.419441,471.358479 1571.246430,471.762591 1571.127600,494.273031 1542.418367,494.842708 1542.073719,509.115296 1510.982178,540.913152 1506.994040,544.996583"/>
    <poly id="127741498" type="building.yes" color="255,230,230" fill="1" layer="-1.00" shape="1579.091137,651.818418 1582.461794,651.952887 1585.424325,651.937454 1585.335003,647.490981 1591.412552,647.332583 1595.598491,647.087587 1595.855304,640.650603 1598.030062,640.325370 1597.992291,634.411119 1588.006155,634.547198 1588.065144,633.068581 1577.395188,633.455778 1577.138748,636.541108 1576.965966,647.557973 1579.257454,647.649387 1579.091137,651.818418"/>
    <poly id="127741499" type="building.commercial" color="255,230,230" fill="1" layer="-1.00" shape="1647.213554,500.949838 1643.345212,504.314171 1644.268043,512.145576 1649.481409,520.103655 1656.647376,526.268963 1668.001558,533.893102 1680.603759,538.560597 1693.577401,540.603925 1706.397163,537.006771 1717.162751,530.889054 1725.072033,520.893661 1729.358361,512.334833 1732.894422,503.757192 1734.662373,495.866155 1734.930653,487.915249 1734.186626,479.300363 1732.254858,472.130169 1728.015473,467.907745 1721.838504,465.100085 1717.484086,467.275776 1714.658993,468.944624 1710.941112,472.582160 1705.822334,478.257182 1702.822913,485.876369 1696.950752,492.490084 1686.848916,498.155527 1673.506232,502.366567 1663.212338,498.247755 1655.521941,496.604640 1650.786070,497.083758 1648.649014,499.804528 1647.213554,500.949838"/>
    <poly id="127741502" type="building.yes" color="255,230,230" fill="1" layer="-1.00" shape="1404.815650,470.972332 1395.958460,470.953367 1396.088803,494.275419 1393.898378,494.288333 1393.947243,505.213794 1397.408290,505.195846 1397.433307,509.851307 1366.278243,509.979285 1366.098204,469.407031 1362.384410,469.426064 1358.586521,469.441749 1358.688197,494.544257 1317.305407,494.699251 1317.202851,470.142340 1298.593178,470.202681 1298.631726,480.158965 1292.054321,480.175322 1292.242934,545.389779 1316.839681,545.322991 1316.774593,519.297740 1358.554857,519.203134 1358.617279,543.880948 1373.421418,543.847341 1380.113893,543.935894 1380.226458,535.299560 1390.075979,535.424865 1390.343699,519.902099 1439.463468,520.746504 1439.929876,505.877487 1440.049180,499.891566 1436.478746,499.660153 1436.647543,493.665071 1404.743498,493.562535 1404.815650,470.972332"/>
    <poly id="127741506" type="leisure.park" color="207,245,201" fill="1" layer="-2.00" shape="1588.065144,633.068581 1588.006155,634.547198 1597.992291,634.411119 1598.030062,640.325370 1612.198053,640.222543 1612.487873,582.119952 1603.185019,582.016028 1603.618815,571.143197 1564.220921,570.640452 1563.986326,576.521565 1566.859129,576.469134 1566.476746,581.832137 1571.415748,580.481377 1579.128119,579.987310 1586.198091,581.872810 1592.664953,585.504740 1598.858144,592.477430 1602.963470,601.115040 1603.561312,609.879955 1602.278540,614.939791 1599.607277,621.024337 1594.651973,627.006624 1589.357743,631.104695 1588.065144,633.068581"/>
    <poly id="127741510" type="leisure.park" color="207,245,201" fill="1" layer="-2.00" shape="1563.766031,586.267130 1561.202015,586.320744 1556.980220,590.806816 1552.931600,597.638170 1551.316599,604.165733 1551.369617,613.042526 1553.547705,619.320523 1559.330823,626.544051 1566.026680,631.120434 1572.691384,633.134510 1577.395188,633.455778 1588.065144,633.068581 1589.357743,631.104695 1594.651973,627.006624 1599.607277,621.024337 1602.278540,614.939791 1603.561312,609.879955 1602.963470,601.115040 1598.858144,592.477430 1592.664953,585.504740 1586.198091,581.872810 1579.128119,579.987310 1571.415748,580.481377 1566.476746,581.832137 1563.940315,581.897986 1563.766031,586.267130"/>
    <poly id="127741514" type="building.commercial" color="255,230,230" fill="1" layer="-1.00" shape="1564.220921,570.640452 1563.986326,576.521565 1566.859129,576.469134 1566.476746,581.832137 1563.940315,581.897986 1563.766031,586.267130 1561.202015,586.320744 1557.148378,586.415157 1536.936701,586.878387 1524.975645,586.902420 1524.933707,588.481932 1521.475013,588.266047 1521.385312,593.507102 1529.547399,594.055327 1528.093504,639.484229 1524.788482,639.463766 1524.588848,642.885415 1520.202439,642.877501 1520.239920,646.865362 1479.457365,647.131999 1479.703820,640.071041 1476.303353,639.979992 1473.638876,632.168266 1472.284459,624.241751 1471.410377,616.590495 1472.058980,608.420928 1472.865168,602.284231 1473.990437,596.594525 1475.352536,590.246157 1478.917315,590.265809 1479.180628,583.662063 1502.236892,583.501338 1502.264360,576.476188 1509.207320,577.499112 1509.161785,575.648870 1524.307316,577.789524 1524.319591,580.473573 1543.912315,581.099115 1544.106535,576.229687 1550.013318,576.131233 1550.087345,570.755931 1561.138770,570.662264 1564.220921,570.640452"/>
    <poly id="127741520" type="building.commercial" color="255,230,230" fill="1" layer="-1.00" shape="1585.731307,675.734297 1582.572046,675.931177 1577.443569,676.227662 1577.356821,688.606443 1571.323052,688.900223 1571.581211,722.015201 1537.657079,722.265436 1537.478086,699.654034 1501.555791,699.847086 1501.632289,714.648684 1468.951132,714.882130 1469.208526,722.508798 1469.320359,725.864921 1477.677373,725.919771 1477.670874,729.427067 1481.980483,729.598914 1481.713459,732.951066 1490.328495,732.871469 1490.265743,724.940777 1527.334960,724.670916 1527.420657,735.720356 1532.177498,735.765327 1532.401356,743.702450 1552.927050,743.797388 1553.102284,756.999481 1569.790858,757.041646 1569.835827,747.645407 1578.111386,747.630361 1577.904824,716.566296 1585.100833,716.519326 1585.731307,675.734297"/>
    <poly id="127741525" type="building.yes" color="255,230,230" fill="1" layer="-1.00" shape="1317.186397,467.736510 1317.202851,470.142340 1317.305407,494.699251 1358.688197,494.544257 1358.586521,469.441749 1358.564247,467.358602 1317.186397,467.736510"/>
    <poly id="127889860" type="building.yes" color="255,230,230" fill="1" layer="-1.00" shape="1817.348291,648.356394 1817.334247,641.151396 1814.512741,641.150058 1814.487110,631.071731 1813.097378,631.071903 1813.054618,612.986725 1813.052572,611.104804 1815.202593,611.224078 1829.302851,611.063459 1864.037187,610.936535 1866.375182,610.918582 1872.531122,610.908399 1879.058914,610.901943 1879.127732,645.546147 1879.132812,648.229922 1872.280052,648.290203 1817.348291,648.356394"/>
    <poly id="127889860#1" type="tourism.hotel" color="207,245,201" fill="1" layer="-2.00" shape="1817.348291,648.356394 1817.334247,641.151396 1814.512741,641.150058 1814.487110,631.071731 1813.097378,631.071903 1813.054618,612.986725 1813.052572,611.104804 1815.202593,611.224078 1829.302851,611.063459 1864.037187,610.936535 1866.375182,610.918582 1872.531122,610.908399 1879.058914,610.901943 1879.127732,645.546147 1879.132812,648.229922 1872.280052,648.290203 1817.348291,648.356394"/>